<?xml version="1.0" encoding="UTF-8"?>

<!-- generated on 06/04/21 07:18:22 by Eclipse SUMO netedit Version 1.8.0
<configuration xmlns:xsi="http://www.w3.org/2001/XMLSchema-instance" xsi:noNamespaceSchemaLocation="http://sumo.dlr.de/xsd/netconvertConfiguration.xsd">

    <input>
        <sumo-net-file value="G:\Licenta\trybest1\Deep-QLearning-Agent-for-Traffic-Signal-Control\TLCS\intersection\environment.net.xml"/>
    </input>

    <output>
        <output-file value="G:\Licenta\trybest1\Deep-QLearning-Agent-for-Traffic-Signal-Control\TLCS\intersection\environment.net.xml"/>
    </output>

    <processing>
        <geometry.min-radius.fix.railways value="false"/>
        <geometry.max-grade.fix value="false"/>
        <offset.disable-normalization value="true"/>
        <lefthand value="false"/>
    </processing>

    <junctions>
        <no-turnarounds value="true"/>
        <junctions.corner-detail value="5"/>
        <junctions.limit-turn-speed value="5.5"/>
        <rectangular-lane-cut value="false"/>
    </junctions>

    <pedestrian>
        <walkingareas value="false"/>
    </pedestrian>

    <report>
        <aggregate-warnings value="5"/>
    </report>

</configuration>
-->

<net version="1.6" junctionCornerDetail="5" limitTurnSpeed="5.50" xmlns:xsi="http://www.w3.org/2001/XMLSchema-instance" xsi:noNamespaceSchemaLocation="http://sumo.dlr.de/xsd/net_file.xsd">

    <location netOffset="0.00,0.00" convBoundary="-750.00,-1500.00,1500.00,750.00" origBoundary="-10000000000.00,-10000000000.00,10000000000.00,10000000000.00" projParameter="!"/>

    <edge id=":TL_0" function="internal">
        <lane id=":TL_0_0" index="0" speed="6.51" length="9.03" shape="-11.20,16.80 -11.55,14.35 -12.60,12.60 -14.35,11.55 -16.80,11.20"/>
    </edge>
    <edge id=":TL_1" function="internal">
        <lane id=":TL_1_0" index="0" speed="13.89" length="33.60" shape="-11.20,16.80 -11.20,-16.80"/>
        <lane id=":TL_1_1" index="1" speed="13.89" length="33.60" shape="-8.00,16.80 -8.00,-16.80"/>
        <lane id=":TL_1_2" index="2" speed="13.89" length="33.60" shape="-4.80,16.80 -4.80,-16.80"/>
    </edge>
    <edge id=":TL_4" function="internal">
        <lane id=":TL_4_0" index="0" speed="11.36" length="29.67" shape="-1.60,16.80 -0.45,8.75 3.00,3.00 8.75,-0.45 16.80,-1.60"/>
    </edge>
    <edge id=":TL_5" function="internal">
        <lane id=":TL_5_0" index="0" speed="6.51" length="9.03" shape="16.80,11.20 14.35,11.55 12.60,12.60 11.55,14.35 11.20,16.80"/>
    </edge>
    <edge id=":TL_6" function="internal">
        <lane id=":TL_6_0" index="0" speed="13.89" length="33.60" shape="16.80,11.20 -16.80,11.20"/>
        <lane id=":TL_6_1" index="1" speed="13.89" length="33.60" shape="16.80,8.00 -16.80,8.00"/>
        <lane id=":TL_6_2" index="2" speed="13.89" length="33.60" shape="16.80,4.80 -16.80,4.80"/>
    </edge>
    <edge id=":TL_9" function="internal">
        <lane id=":TL_9_0" index="0" speed="11.36" length="29.67" shape="16.80,1.60 8.75,0.45 3.00,-3.00 -0.45,-8.75 -1.60,-16.80"/>
    </edge>
    <edge id=":TL_10" function="internal">
        <lane id=":TL_10_0" index="0" speed="6.51" length="9.03" shape="11.20,-16.80 11.55,-14.35 12.60,-12.60 14.35,-11.55 16.80,-11.20"/>
    </edge>
    <edge id=":TL_11" function="internal">
        <lane id=":TL_11_0" index="0" speed="13.89" length="33.60" shape="11.20,-16.80 11.20,16.80"/>
        <lane id=":TL_11_1" index="1" speed="13.89" length="33.60" shape="8.00,-16.80 8.00,16.80"/>
        <lane id=":TL_11_2" index="2" speed="13.89" length="33.60" shape="4.80,-16.80 4.80,16.80"/>
    </edge>
    <edge id=":TL_14" function="internal">
        <lane id=":TL_14_0" index="0" speed="11.36" length="29.67" shape="1.60,-16.80 0.45,-8.75 -3.00,-3.00 -8.75,0.45 -16.80,1.60"/>
    </edge>
    <edge id=":TL_15" function="internal">
        <lane id=":TL_15_0" index="0" speed="6.51" length="9.03" shape="-16.80,-11.20 -14.35,-11.55 -12.60,-12.60 -11.55,-14.35 -11.20,-16.80"/>
    </edge>
    <edge id=":TL_16" function="internal">
        <lane id=":TL_16_0" index="0" speed="13.89" length="33.60" shape="-16.80,-11.20 16.80,-11.20"/>
        <lane id=":TL_16_1" index="1" speed="13.89" length="33.60" shape="-16.80,-8.00 16.80,-8.00"/>
        <lane id=":TL_16_2" index="2" speed="13.89" length="33.60" shape="-16.80,-4.80 16.80,-4.80"/>
    </edge>
    <edge id=":TL_19" function="internal">
        <lane id=":TL_19_0" index="0" speed="11.36" length="29.67" shape="-16.80,-1.60 -8.75,-0.45 -3.00,3.00 0.45,8.75 1.60,16.80"/>
    </edge>
    <edge id=":TL1_0" function="internal">
        <lane id=":TL1_0_0" index="0" speed="6.51" length="9.03" shape="738.80,16.80 738.45,14.35 737.40,12.60 735.65,11.55 733.20,11.20"/>
    </edge>
    <edge id=":TL1_1" function="internal">
        <lane id=":TL1_1_0" index="0" speed="13.89" length="33.60" shape="738.80,16.80 738.80,-16.80"/>
        <lane id=":TL1_1_1" index="1" speed="13.89" length="33.60" shape="742.00,16.80 742.00,-16.80"/>
        <lane id=":TL1_1_2" index="2" speed="13.89" length="33.60" shape="745.20,16.80 745.20,-16.80"/>
    </edge>
    <edge id=":TL1_4" function="internal">
        <lane id=":TL1_4_0" index="0" speed="11.36" length="29.67" shape="748.40,16.80 749.55,8.75 753.00,3.00 758.75,-0.45 766.80,-1.60"/>
    </edge>
    <edge id=":TL1_5" function="internal">
        <lane id=":TL1_5_0" index="0" speed="6.51" length="9.03" shape="766.80,11.20 764.35,11.55 762.60,12.60 761.55,14.35 761.20,16.80"/>
    </edge>
    <edge id=":TL1_6" function="internal">
        <lane id=":TL1_6_0" index="0" speed="13.89" length="33.60" shape="766.80,11.20 733.20,11.20"/>
        <lane id=":TL1_6_1" index="1" speed="13.89" length="33.60" shape="766.80,8.00 733.20,8.00"/>
        <lane id=":TL1_6_2" index="2" speed="13.89" length="33.60" shape="766.80,4.80 733.20,4.80"/>
    </edge>
    <edge id=":TL1_9" function="internal">
        <lane id=":TL1_9_0" index="0" speed="11.36" length="29.67" shape="766.80,1.60 758.75,0.45 753.00,-3.00 749.55,-8.75 748.40,-16.80"/>
    </edge>
    <edge id=":TL1_10" function="internal">
        <lane id=":TL1_10_0" index="0" speed="6.51" length="9.03" shape="761.20,-16.80 761.55,-14.35 762.60,-12.60 764.35,-11.55 766.80,-11.20"/>
    </edge>
    <edge id=":TL1_11" function="internal">
        <lane id=":TL1_11_0" index="0" speed="13.89" length="33.60" shape="761.20,-16.80 761.20,16.80"/>
        <lane id=":TL1_11_1" index="1" speed="13.89" length="33.60" shape="758.00,-16.80 758.00,16.80"/>
        <lane id=":TL1_11_2" index="2" speed="13.89" length="33.60" shape="754.80,-16.80 754.80,16.80"/>
    </edge>
    <edge id=":TL1_14" function="internal">
        <lane id=":TL1_14_0" index="0" speed="11.36" length="29.67" shape="751.60,-16.80 750.45,-8.75 747.00,-3.00 741.25,0.45 733.20,1.60"/>
    </edge>
    <edge id=":TL1_15" function="internal">
        <lane id=":TL1_15_0" index="0" speed="6.51" length="9.03" shape="733.20,-11.20 735.65,-11.55 737.40,-12.60 738.45,-14.35 738.80,-16.80"/>
    </edge>
    <edge id=":TL1_16" function="internal">
        <lane id=":TL1_16_0" index="0" speed="13.89" length="33.60" shape="733.20,-11.20 766.80,-11.20"/>
        <lane id=":TL1_16_1" index="1" speed="13.89" length="33.60" shape="733.20,-8.00 766.80,-8.00"/>
        <lane id=":TL1_16_2" index="2" speed="13.89" length="33.60" shape="733.20,-4.80 766.80,-4.80"/>
    </edge>
    <edge id=":TL1_19" function="internal">
        <lane id=":TL1_19_0" index="0" speed="11.36" length="29.67" shape="733.20,-1.60 741.25,-0.45 747.00,3.00 750.45,8.75 751.60,16.80"/>
    </edge>
    <edge id=":TL2_0" function="internal">
        <lane id=":TL2_0_0" index="0" speed="6.51" length="9.03" shape="-11.20,-733.20 -11.55,-735.65 -12.60,-737.40 -14.35,-738.45 -16.80,-738.80"/>
    </edge>
    <edge id=":TL2_1" function="internal">
        <lane id=":TL2_1_0" index="0" speed="13.89" length="33.60" shape="-11.20,-733.20 -11.20,-766.80"/>
        <lane id=":TL2_1_1" index="1" speed="13.89" length="33.60" shape="-8.00,-733.20 -8.00,-766.80"/>
        <lane id=":TL2_1_2" index="2" speed="13.89" length="33.60" shape="-4.80,-733.20 -4.80,-766.80"/>
    </edge>
    <edge id=":TL2_4" function="internal">
        <lane id=":TL2_4_0" index="0" speed="11.36" length="29.67" shape="-1.60,-733.20 -0.45,-741.25 3.00,-747.00 8.75,-750.45 16.80,-751.60"/>
    </edge>
    <edge id=":TL2_5" function="internal">
        <lane id=":TL2_5_0" index="0" speed="6.51" length="9.03" shape="16.80,-738.80 14.35,-738.45 12.60,-737.40 11.55,-735.65 11.20,-733.20"/>
    </edge>
    <edge id=":TL2_6" function="internal">
        <lane id=":TL2_6_0" index="0" speed="13.89" length="33.60" shape="16.80,-738.80 -16.80,-738.80"/>
        <lane id=":TL2_6_1" index="1" speed="13.89" length="33.60" shape="16.80,-742.00 -16.80,-742.00"/>
        <lane id=":TL2_6_2" index="2" speed="13.89" length="33.60" shape="16.80,-745.20 -16.80,-745.20"/>
    </edge>
    <edge id=":TL2_9" function="internal">
        <lane id=":TL2_9_0" index="0" speed="11.36" length="29.67" shape="16.80,-748.40 8.75,-749.55 3.00,-753.00 -0.45,-758.75 -1.60,-766.80"/>
    </edge>
    <edge id=":TL2_10" function="internal">
        <lane id=":TL2_10_0" index="0" speed="6.51" length="9.03" shape="11.20,-766.80 11.55,-764.35 12.60,-762.60 14.35,-761.55 16.80,-761.20"/>
    </edge>
    <edge id=":TL2_11" function="internal">
        <lane id=":TL2_11_0" index="0" speed="13.89" length="33.60" shape="11.20,-766.80 11.20,-733.20"/>
        <lane id=":TL2_11_1" index="1" speed="13.89" length="33.60" shape="8.00,-766.80 8.00,-733.20"/>
        <lane id=":TL2_11_2" index="2" speed="13.89" length="33.60" shape="4.80,-766.80 4.80,-733.20"/>
    </edge>
    <edge id=":TL2_14" function="internal">
        <lane id=":TL2_14_0" index="0" speed="11.36" length="29.67" shape="1.60,-766.80 0.45,-758.75 -3.00,-753.00 -8.75,-749.55 -16.80,-748.40"/>
    </edge>
    <edge id=":TL2_15" function="internal">
        <lane id=":TL2_15_0" index="0" speed="6.51" length="9.03" shape="-16.80,-761.20 -14.35,-761.55 -12.60,-762.60 -11.55,-764.35 -11.20,-766.80"/>
    </edge>
    <edge id=":TL2_16" function="internal">
        <lane id=":TL2_16_0" index="0" speed="13.89" length="33.60" shape="-16.80,-761.20 16.80,-761.20"/>
        <lane id=":TL2_16_1" index="1" speed="13.89" length="33.60" shape="-16.80,-758.00 16.80,-758.00"/>
        <lane id=":TL2_16_2" index="2" speed="13.89" length="33.60" shape="-16.80,-754.80 16.80,-754.80"/>
    </edge>
    <edge id=":TL2_19" function="internal">
        <lane id=":TL2_19_0" index="0" speed="11.36" length="29.67" shape="-16.80,-751.60 -8.75,-750.45 -3.00,-747.00 0.45,-741.25 1.60,-733.20"/>
    </edge>
    <edge id=":TL3_0" function="internal">
        <lane id=":TL3_0_0" index="0" speed="6.51" length="9.03" shape="738.80,-733.20 738.45,-735.65 737.40,-737.40 735.65,-738.45 733.20,-738.80"/>
    </edge>
    <edge id=":TL3_1" function="internal">
        <lane id=":TL3_1_0" index="0" speed="13.89" length="33.60" shape="738.80,-733.20 738.80,-766.80"/>
        <lane id=":TL3_1_1" index="1" speed="13.89" length="33.60" shape="742.00,-733.20 742.00,-766.80"/>
        <lane id=":TL3_1_2" index="2" speed="13.89" length="33.60" shape="745.20,-733.20 745.20,-766.80"/>
    </edge>
    <edge id=":TL3_4" function="internal">
        <lane id=":TL3_4_0" index="0" speed="11.36" length="29.67" shape="748.40,-733.20 749.55,-741.25 753.00,-747.00 758.75,-750.45 766.80,-751.60"/>
    </edge>
    <edge id=":TL3_5" function="internal">
        <lane id=":TL3_5_0" index="0" speed="6.51" length="9.03" shape="766.80,-738.80 764.35,-738.45 762.60,-737.40 761.55,-735.65 761.20,-733.20"/>
    </edge>
    <edge id=":TL3_6" function="internal">
        <lane id=":TL3_6_0" index="0" speed="13.89" length="33.60" shape="766.80,-738.80 733.20,-738.80"/>
        <lane id=":TL3_6_1" index="1" speed="13.89" length="33.60" shape="766.80,-742.00 733.20,-742.00"/>
        <lane id=":TL3_6_2" index="2" speed="13.89" length="33.60" shape="766.80,-745.20 733.20,-745.20"/>
    </edge>
    <edge id=":TL3_9" function="internal">
        <lane id=":TL3_9_0" index="0" speed="11.36" length="29.67" shape="766.80,-748.40 758.75,-749.55 753.00,-753.00 749.55,-758.75 748.40,-766.80"/>
    </edge>
    <edge id=":TL3_10" function="internal">
        <lane id=":TL3_10_0" index="0" speed="6.51" length="9.03" shape="761.20,-766.80 761.55,-764.35 762.60,-762.60 764.35,-761.55 766.80,-761.20"/>
    </edge>
    <edge id=":TL3_11" function="internal">
        <lane id=":TL3_11_0" index="0" speed="13.89" length="33.60" shape="761.20,-766.80 761.20,-733.20"/>
        <lane id=":TL3_11_1" index="1" speed="13.89" length="33.60" shape="758.00,-766.80 758.00,-733.20"/>
        <lane id=":TL3_11_2" index="2" speed="13.89" length="33.60" shape="754.80,-766.80 754.80,-733.20"/>
    </edge>
    <edge id=":TL3_14" function="internal">
        <lane id=":TL3_14_0" index="0" speed="11.36" length="29.67" shape="751.60,-766.80 750.45,-758.75 747.00,-753.00 741.25,-749.55 733.20,-748.40"/>
    </edge>
    <edge id=":TL3_15" function="internal">
        <lane id=":TL3_15_0" index="0" speed="6.51" length="9.03" shape="733.20,-761.20 735.65,-761.55 737.40,-762.60 738.45,-764.35 738.80,-766.80"/>
    </edge>
    <edge id=":TL3_16" function="internal">
        <lane id=":TL3_16_0" index="0" speed="13.89" length="33.60" shape="733.20,-761.20 766.80,-761.20"/>
        <lane id=":TL3_16_1" index="1" speed="13.89" length="33.60" shape="733.20,-758.00 766.80,-758.00"/>
        <lane id=":TL3_16_2" index="2" speed="13.89" length="33.60" shape="733.20,-754.80 766.80,-754.80"/>
    </edge>
    <edge id=":TL3_19" function="internal">
        <lane id=":TL3_19_0" index="0" speed="11.36" length="29.67" shape="733.20,-751.60 741.25,-750.45 747.00,-747.00 750.45,-741.25 751.60,-733.20"/>
    </edge>

    <edge id="E2TL" from="TL1" to="TL" priority="-1" length="750.00">
        <lane id="E2TL_0" index="0" speed="13.89" length="750.00" shape="733.20,11.20 16.80,11.20"/>
        <lane id="E2TL_1" index="1" speed="13.89" length="750.00" shape="733.20,8.00 16.80,8.00"/>
        <lane id="E2TL_2" index="2" speed="13.89" length="750.00" shape="733.20,4.80 16.80,4.80"/>
        <lane id="E2TL_3" index="3" speed="13.89" length="750.00" shape="733.20,1.60 16.80,1.60"/>
    </edge>
    <edge id="E2TL1" from="DE" to="TL1" priority="-1">
        <lane id="E2TL1_0" index="0" speed="13.89" length="733.20" shape="1500.00,11.20 766.80,11.20"/>
        <lane id="E2TL1_1" index="1" speed="13.89" length="733.20" shape="1500.00,8.00 766.80,8.00"/>
        <lane id="E2TL1_2" index="2" speed="13.89" length="733.20" shape="1500.00,4.80 766.80,4.80"/>
        <lane id="E2TL1_3" index="3" speed="13.89" length="733.20" shape="1500.00,1.60 766.80,1.60"/>
    </edge>
    <edge id="E2TL2" from="TL3" to="TL2" priority="-1">
        <lane id="E2TL2_0" index="0" speed="13.89" length="716.40" shape="733.20,-738.80 16.80,-738.80"/>
        <lane id="E2TL2_1" index="1" speed="13.89" length="716.40" shape="733.20,-742.00 16.80,-742.00"/>
        <lane id="E2TL2_2" index="2" speed="13.89" length="716.40" shape="733.20,-745.20 16.80,-745.20"/>
        <lane id="E2TL2_3" index="3" speed="13.89" length="716.40" shape="733.20,-748.40 16.80,-748.40"/>
    </edge>
    <edge id="E2TL3" from="DE1" to="TL3" priority="-1">
        <lane id="E2TL3_0" index="0" speed="13.89" length="733.20" shape="1500.00,-738.80 766.80,-738.80"/>
        <lane id="E2TL3_1" index="1" speed="13.89" length="733.20" shape="1500.00,-742.00 766.80,-742.00"/>
        <lane id="E2TL3_2" index="2" speed="13.89" length="733.20" shape="1500.00,-745.20 766.80,-745.20"/>
        <lane id="E2TL3_3" index="3" speed="13.89" length="733.20" shape="1500.00,-748.40 766.80,-748.40"/>
    </edge>
    <edge id="N2TL" from="DN" to="TL" priority="-1" length="750.00">
        <lane id="N2TL_0" index="0" speed="13.89" length="750.00" shape="-11.20,750.00 -11.20,16.80"/>
        <lane id="N2TL_1" index="1" speed="13.89" length="750.00" shape="-8.00,750.00 -8.00,16.80"/>
        <lane id="N2TL_2" index="2" speed="13.89" length="750.00" shape="-4.80,750.00 -4.80,16.80"/>
        <lane id="N2TL_3" index="3" speed="13.89" length="750.00" shape="-1.60,750.00 -1.60,16.80"/>
    </edge>
    <edge id="N2TL1" from="DN1" to="TL1" priority="-1">
        <lane id="N2TL1_0" index="0" speed="13.89" length="733.20" shape="738.80,750.00 738.80,16.80"/>
        <lane id="N2TL1_1" index="1" speed="13.89" length="733.20" shape="742.00,750.00 742.00,16.80"/>
        <lane id="N2TL1_2" index="2" speed="13.89" length="733.20" shape="745.20,750.00 745.20,16.80"/>
        <lane id="N2TL1_3" index="3" speed="13.89" length="733.20" shape="748.40,750.00 748.40,16.80"/>
    </edge>
    <edge id="S2TL" from="TL2" to="TL" priority="-1" length="750.00">
        <lane id="S2TL_0" index="0" speed="13.89" length="750.00" shape="11.20,-733.20 11.20,-16.80"/>
        <lane id="S2TL_1" index="1" speed="13.89" length="750.00" shape="8.00,-733.20 8.00,-16.80"/>
        <lane id="S2TL_2" index="2" speed="13.89" length="750.00" shape="4.80,-733.20 4.80,-16.80"/>
        <lane id="S2TL_3" index="3" speed="13.89" length="750.00" shape="1.60,-733.20 1.60,-16.80"/>
    </edge>
    <edge id="S2TL1" from="TL3" to="TL1" priority="-1">
        <lane id="S2TL1_0" index="0" speed="13.89" length="716.40" shape="761.20,-733.20 761.20,-16.80"/>
        <lane id="S2TL1_1" index="1" speed="13.89" length="716.40" shape="758.00,-733.20 758.00,-16.80"/>
        <lane id="S2TL1_2" index="2" speed="13.89" length="716.40" shape="754.80,-733.20 754.80,-16.80"/>
        <lane id="S2TL1_3" index="3" speed="13.89" length="716.40" shape="751.60,-733.20 751.60,-16.80"/>
    </edge>
    <edge id="S2TL2" from="DS" to="TL2" priority="-1">
        <lane id="S2TL2_0" index="0" speed="13.89" length="733.20" shape="11.20,-1500.00 11.20,-766.80"/>
        <lane id="S2TL2_1" index="1" speed="13.89" length="733.20" shape="8.00,-1500.00 8.00,-766.80"/>
        <lane id="S2TL2_2" index="2" speed="13.89" length="733.20" shape="4.80,-1500.00 4.80,-766.80"/>
        <lane id="S2TL2_3" index="3" speed="13.89" length="733.20" shape="1.60,-1500.00 1.60,-766.80"/>
    </edge>
    <edge id="S2TL3" from="DS1" to="TL3" priority="-1">
        <lane id="S2TL3_0" index="0" speed="13.89" length="733.20" shape="761.20,-1500.00 761.20,-766.80"/>
        <lane id="S2TL3_1" index="1" speed="13.89" length="733.20" shape="758.00,-1500.00 758.00,-766.80"/>
        <lane id="S2TL3_2" index="2" speed="13.89" length="733.20" shape="754.80,-1500.00 754.80,-766.80"/>
        <lane id="S2TL3_3" index="3" speed="13.89" length="733.20" shape="751.60,-1500.00 751.60,-766.80"/>
    </edge>
    <edge id="TL12E" from="TL1" to="DE" priority="-1">
        <lane id="TL12E_0" index="0" speed="13.89" length="733.20" shape="766.80,-11.20 1500.00,-11.20"/>
        <lane id="TL12E_1" index="1" speed="13.89" length="733.20" shape="766.80,-8.00 1500.00,-8.00"/>
        <lane id="TL12E_2" index="2" speed="13.89" length="733.20" shape="766.80,-4.80 1500.00,-4.80"/>
        <lane id="TL12E_3" index="3" speed="13.89" length="733.20" shape="766.80,-1.60 1500.00,-1.60"/>
    </edge>
    <edge id="TL12N" from="TL1" to="DN1" priority="-1">
        <lane id="TL12N_0" index="0" speed="13.89" length="733.20" shape="761.20,16.80 761.20,750.00"/>
        <lane id="TL12N_1" index="1" speed="13.89" length="733.20" shape="758.00,16.80 758.00,750.00"/>
        <lane id="TL12N_2" index="2" speed="13.89" length="733.20" shape="754.80,16.80 754.80,750.00"/>
        <lane id="TL12N_3" index="3" speed="13.89" length="733.20" shape="751.60,16.80 751.60,750.00"/>
    </edge>
    <edge id="TL12S" from="TL1" to="TL3" priority="-1">
        <lane id="TL12S_0" index="0" speed="13.89" length="716.40" shape="738.80,-16.80 738.80,-733.20"/>
        <lane id="TL12S_1" index="1" speed="13.89" length="716.40" shape="742.00,-16.80 742.00,-733.20"/>
        <lane id="TL12S_2" index="2" speed="13.89" length="716.40" shape="745.20,-16.80 745.20,-733.20"/>
        <lane id="TL12S_3" index="3" speed="13.89" length="716.40" shape="748.40,-16.80 748.40,-733.20"/>
    </edge>
    <edge id="TL22E" from="TL2" to="TL3" priority="-1">
        <lane id="TL22E_0" index="0" speed="13.89" length="716.40" shape="16.80,-761.20 733.20,-761.20"/>
        <lane id="TL22E_1" index="1" speed="13.89" length="716.40" shape="16.80,-758.00 733.20,-758.00"/>
        <lane id="TL22E_2" index="2" speed="13.89" length="716.40" shape="16.80,-754.80 733.20,-754.80"/>
        <lane id="TL22E_3" index="3" speed="13.89" length="716.40" shape="16.80,-751.60 733.20,-751.60"/>
    </edge>
    <edge id="TL22S" from="TL2" to="DS" priority="-1">
        <lane id="TL22S_0" index="0" speed="13.89" length="733.20" shape="-11.20,-766.80 -11.20,-1500.00"/>
        <lane id="TL22S_1" index="1" speed="13.89" length="733.20" shape="-8.00,-766.80 -8.00,-1500.00"/>
        <lane id="TL22S_2" index="2" speed="13.89" length="733.20" shape="-4.80,-766.80 -4.80,-1500.00"/>
        <lane id="TL22S_3" index="3" speed="13.89" length="733.20" shape="-1.60,-766.80 -1.60,-1500.00"/>
    </edge>
    <edge id="TL22W" from="TL2" to="DW1" priority="-1">
        <lane id="TL22W_0" index="0" speed="13.89" length="733.20" shape="-16.80,-738.80 -750.00,-738.80"/>
        <lane id="TL22W_1" index="1" speed="13.89" length="733.20" shape="-16.80,-742.00 -750.00,-742.00"/>
        <lane id="TL22W_2" index="2" speed="13.89" length="733.20" shape="-16.80,-745.20 -750.00,-745.20"/>
        <lane id="TL22W_3" index="3" speed="13.89" length="733.20" shape="-16.80,-748.40 -750.00,-748.40"/>
    </edge>
    <edge id="TL2E" from="TL" to="TL1" priority="-1" length="750.00">
        <lane id="TL2E_0" index="0" speed="13.89" length="750.00" shape="16.80,-11.20 733.20,-11.20"/>
        <lane id="TL2E_1" index="1" speed="13.89" length="750.00" shape="16.80,-8.00 733.20,-8.00"/>
        <lane id="TL2E_2" index="2" speed="13.89" length="750.00" shape="16.80,-4.80 733.20,-4.80"/>
        <lane id="TL2E_3" index="3" speed="13.89" length="750.00" shape="16.80,-1.60 733.20,-1.60"/>
    </edge>
    <edge id="TL2N" from="TL" to="DN" priority="-1" length="750.00">
        <lane id="TL2N_0" index="0" speed="13.89" length="750.00" shape="11.20,16.80 11.20,750.00"/>
        <lane id="TL2N_1" index="1" speed="13.89" length="750.00" shape="8.00,16.80 8.00,750.00"/>
        <lane id="TL2N_2" index="2" speed="13.89" length="750.00" shape="4.80,16.80 4.80,750.00"/>
        <lane id="TL2N_3" index="3" speed="13.89" length="750.00" shape="1.60,16.80 1.60,750.00"/>
    </edge>
    <edge id="TL2S" from="TL" to="TL2" priority="-1" length="750.00">
        <lane id="TL2S_0" index="0" speed="13.89" length="750.00" shape="-11.20,-16.80 -11.20,-733.20"/>
        <lane id="TL2S_1" index="1" speed="13.89" length="750.00" shape="-8.00,-16.80 -8.00,-733.20"/>
        <lane id="TL2S_2" index="2" speed="13.89" length="750.00" shape="-4.80,-16.80 -4.80,-733.20"/>
        <lane id="TL2S_3" index="3" speed="13.89" length="750.00" shape="-1.60,-16.80 -1.60,-733.20"/>
    </edge>
    <edge id="TL2W" from="TL" to="DW" priority="-1" length="750.00">
        <lane id="TL2W_0" index="0" speed="13.89" length="750.00" shape="-16.80,11.20 -750.00,11.20"/>
        <lane id="TL2W_1" index="1" speed="13.89" length="750.00" shape="-16.80,8.00 -750.00,8.00"/>
        <lane id="TL2W_2" index="2" speed="13.89" length="750.00" shape="-16.80,4.80 -750.00,4.80"/>
        <lane id="TL2W_3" index="3" speed="13.89" length="750.00" shape="-16.80,1.60 -750.00,1.60"/>
    </edge>
    <edge id="TL32E" from="TL3" to="DE1" priority="-1">
        <lane id="TL32E_0" index="0" speed="13.89" length="733.20" shape="766.80,-761.20 1500.00,-761.20"/>
        <lane id="TL32E_1" index="1" speed="13.89" length="733.20" shape="766.80,-758.00 1500.00,-758.00"/>
        <lane id="TL32E_2" index="2" speed="13.89" length="733.20" shape="766.80,-754.80 1500.00,-754.80"/>
        <lane id="TL32E_3" index="3" speed="13.89" length="733.20" shape="766.80,-751.60 1500.00,-751.60"/>
    </edge>
    <edge id="TL32S" from="TL3" to="DS1" priority="-1">
        <lane id="TL32S_0" index="0" speed="13.89" length="733.20" shape="738.80,-766.80 738.80,-1500.00"/>
        <lane id="TL32S_1" index="1" speed="13.89" length="733.20" shape="742.00,-766.80 742.00,-1500.00"/>
        <lane id="TL32S_2" index="2" speed="13.89" length="733.20" shape="745.20,-766.80 745.20,-1500.00"/>
        <lane id="TL32S_3" index="3" speed="13.89" length="733.20" shape="748.40,-766.80 748.40,-1500.00"/>
    </edge>
    <edge id="W2TL" from="DW" to="TL" priority="-1" length="750.00">
        <lane id="W2TL_0" index="0" speed="13.89" length="750.00" shape="-750.00,-11.20 -16.80,-11.20"/>
        <lane id="W2TL_1" index="1" speed="13.89" length="750.00" shape="-750.00,-8.00 -16.80,-8.00"/>
        <lane id="W2TL_2" index="2" speed="13.89" length="750.00" shape="-750.00,-4.80 -16.80,-4.80"/>
        <lane id="W2TL_3" index="3" speed="13.89" length="750.00" shape="-750.00,-1.60 -16.80,-1.60"/>
    </edge>
    <edge id="W2TL2" from="DW1" to="TL2" priority="-1">
        <lane id="W2TL2_0" index="0" speed="13.89" length="733.20" shape="-750.00,-761.20 -16.80,-761.20"/>
        <lane id="W2TL2_1" index="1" speed="13.89" length="733.20" shape="-750.00,-758.00 -16.80,-758.00"/>
        <lane id="W2TL2_2" index="2" speed="13.89" length="733.20" shape="-750.00,-754.80 -16.80,-754.80"/>
        <lane id="W2TL2_3" index="3" speed="13.89" length="733.20" shape="-750.00,-751.60 -16.80,-751.60"/>
    </edge>

    <tlLogic id="TL" type="static" programID="0" offset="0">
        <phase duration="100" state="GGGGrrrrrrGGGGrrrrrr"/>
        <phase duration="100" state="yyyyrrrrrryyyyrrrrrr"/>
        <phase duration="100" state="rrrrGrrrrrrrrrGrrrrr"/>
        <phase duration="100" state="rrrryrrrrrrrrryrrrrr"/>
        <phase duration="100" state="rrrrrGGGGrrrrrrGGGGr"/>
        <phase duration="100" state="rrrrryyyyrrrrrryyyyr"/>
        <phase duration="100" state="rrrrrrrrrGrrrrrrrrrG"/>
        <phase duration="100" state="rrrrrrrrryrrrrrrrrry"/>
    </tlLogic>
    <tlLogic id="TL" type="static" programID="1" offset="0">
        <phase duration="100" state="GGGGrrrrrrGGGGrrrrrr"/>
        <phase duration="100" state="yyyyrrrrrryyyyrrrrrr"/>
        <phase duration="100" state="rrrrGrrrrrrrrrGrrrrr"/>
        <phase duration="100" state="rrrryrrrrrrrrryrrrrr"/>
        <phase duration="100" state="rrrrrGGGGrrrrrrGGGGr"/>
        <phase duration="100" state="rrrrryyyyrrrrrryyyyr"/>
        <phase duration="100" state="rrrrrrrrrGrrrrrrrrrG"/>
        <phase duration="100" state="rrrrrrrrryrrrrrrrrry"/>
    </tlLogic>
    <tlLogic id="TL1" type="static" programID="0" offset="0">
        <phase duration="100" state="GGGGrrrrrrGGGGrrrrrr"/>
        <phase duration="100" state="yyyyrrrrrryyyyrrrrrr"/>
        <phase duration="100" state="rrrrGrrrrrrrrrGrrrrr"/>
        <phase duration="100" state="rrrryrrrrrrrrryrrrrr"/>
        <phase duration="100" state="rrrrrGGGGrrrrrrGGGGr"/>
        <phase duration="100" state="rrrrryyyyrrrrrryyyyr"/>
        <phase duration="100" state="rrrrrrrrrGrrrrrrrrrG"/>
        <phase duration="100" state="rrrrrrrrryrrrrrrrrry"/>
    </tlLogic>
    <tlLogic id="TL2" type="static" programID="0" offset="0">
        <phase duration="100" state="GGGGrrrrrrGGGGrrrrrr"/>
        <phase duration="100" state="yyyyrrrrrryyyyrrrrrr"/>
        <phase duration="100" state="rrrrGrrrrrrrrrGrrrrr"/>
        <phase duration="100" state="rrrryrrrrrrrrryrrrrr"/>
        <phase duration="100" state="rrrrrGGGGrrrrrrGGGGr"/>
        <phase duration="100" state="rrrrryyyyrrrrrryyyyr"/>
        <phase duration="100" state="rrrrrrrrrGrrrrrrrrrG"/>
        <phase duration="100" state="rrrrrrrrryrrrrrrrrry"/>
    </tlLogic>
    <tlLogic id="TL3" type="static" programID="0" offset="0">
        <phase duration="100" state="GGGGrrrrrrGGGGrrrrrr"/>
        <phase duration="100" state="yyyyrrrrrryyyyrrrrrr"/>
        <phase duration="100" state="rrrrGrrrrrrrrrGrrrrr"/>
        <phase duration="100" state="rrrryrrrrrrrrryrrrrr"/>
        <phase duration="100" state="rrrrrGGGGrrrrrrGGGGr"/>
        <phase duration="100" state="rrrrryyyyrrrrrryyyyr"/>
        <phase duration="100" state="rrrrrrrrrGrrrrrrrrrG"/>
        <phase duration="100" state="rrrrrrrrryrrrrrrrrry"/>
    </tlLogic>

    <junction id="DE" type="dead_end" x="1500.00" y="0.00" incLanes="TL12E_0 TL12E_1 TL12E_2 TL12E_3" intLanes="" shape="1500.00,0.00 1500.00,-12.80 1500.00,0.00"/>
    <junction id="DE1" type="dead_end" x="1500.00" y="-750.00" incLanes="TL32E_0 TL32E_1 TL32E_2 TL32E_3" intLanes="" shape="1500.00,-750.00 1500.00,-762.80 1500.00,-750.00"/>
    <junction id="DN" type="dead_end" x="0.00" y="750.00" incLanes="TL2N_0 TL2N_1 TL2N_2 TL2N_3" intLanes="" shape="0.00,750.00 12.80,750.00 0.00,750.00"/>
    <junction id="DN1" type="dead_end" x="750.00" y="750.00" incLanes="TL12N_0 TL12N_1 TL12N_2 TL12N_3" intLanes="" shape="750.00,750.00 762.80,750.00 750.00,750.00"/>
    <junction id="DS" type="dead_end" x="0.00" y="-1500.00" incLanes="TL22S_0 TL22S_1 TL22S_2 TL22S_3" intLanes="" shape="0.00,-1500.00 -12.80,-1500.00 0.00,-1500.00"/>
    <junction id="DS1" type="dead_end" x="750.00" y="-1500.00" incLanes="TL32S_0 TL32S_1 TL32S_2 TL32S_3" intLanes="" shape="750.00,-1500.00 737.20,-1500.00 750.00,-1500.00"/>
    <junction id="DW" type="dead_end" x="-750.00" y="0.00" incLanes="TL2W_0 TL2W_1 TL2W_2 TL2W_3" intLanes="" shape="-750.00,0.00 -750.00,12.80 -750.00,0.00"/>
    <junction id="DW1" type="dead_end" x="-750.00" y="-750.00" incLanes="TL22W_0 TL22W_1 TL22W_2 TL22W_3" intLanes="" shape="-750.00,-750.00 -750.00,-737.20 -750.00,-750.00"/>