<routes>
            <vType accel="1.0" decel="4.5" id="standard_car" length="5.0" minGap="2.5" maxSpeed="25" sigma="0.5" />

            <route id="W_N" edges="W2TL TL2N"/>
            <route id="W_E" edges="W2TL TL2E TL12E"/>
            <route id="W_S" edges="W2TL TL2S"/>
            <route id="N_W" edges="N2TL TL2W"/>
            <route id="N_E" edges="N2TL TL2E TL12E"/>
            <route id="N_S" edges="N2TL TL2S"/>
            <route id="E_W" edges="E2TL TL2W"/>
            <route id="E_N" edges="E2TL TL2N"/>
            <route id="E_S" edges="E2TL TL2S"/>
            <route id="S_W" edges="S2TL TL2W"/>
            <route id="S_N" edges="S2TL TL2N"/>
            <route id="S_E" edges="S2TL TL2E TL12S"/>
            
            <route id="W_N1" edges="TL2E TL12N"/>
            <route id="W_E1" edges="TL2E TL12E"/>
            <route id="W_S1" edges="TL2E TL12S"/>
            <route id="N_W1" edges="N2TL1 E2TL TL2N"/>
            <route id="N_E1" edges="N2TL1 TL12E"/>
            <route id="N_S1" edges="N2TL1 TL12S"/>
            <route id="E_W1" edges="E2TL1 E2TL TL2W"/>
            <route id="E_N1" edges="E2TL1 TL12N"/>
            <route id="E_S1" edges="E2TL1 TL12S"/>
            <route id="S_W1" edges="S2TL1 E2TL TL2S"/>
            <route id="S_N1" edges="S2TL1 TL12N"/>
            <route id="S_E1" edges="S2TL1 TL12E"/>
            
            
    <vehicle id="E_S1_0" type="standard_car" route="E_S1" depart="66.0" departLane="random" departSpeed="10" />
    <vehicle id="E_W1_1" type="standard_car" route="E_W1" depart="78.0" departLane="random" departSpeed="10" />
    <vehicle id="E_N_2" type="standard_car" route="N_W1" depart="123.0" departLane="random" departSpeed="10" />
    <vehicle id="N_E_3" type="standard_car" route="N_E" depart="124.0" departLane="random" departSpeed="10" />
    <vehicle id="W_E_4" type="standard_car" route="W_E" depart="132.0" departLane="random" departSpeed="10" />
    <vehicle id="E_W1_5" type="standard_car" route="E_W1" depart="142.0" departLane="random" departSpeed="10" />
    <vehicle id="N_E_6" type="standard_car" route="N_E" depart="145.0" departLane="random" departSpeed="10" />
    <vehicle id="W_N_7" type="standard_car" route="W_N" depart="146.0" departLane="random" departSpeed="10" />
    <vehicle id="N_S1_8" type="standard_car" route="N_S1" depart="185.0" departLane="random" departSpeed="10" />
    <vehicle id="E_S1_9" type="standard_car" route="E_S1" depart="186.0" departLane="random" departSpeed="10" />
    <vehicle id="W_E_10" type="standard_car" route="W_E" depart="188.0" departLane="random" departSpeed="10" />
    <vehicle id="E_S1_11" type="standard_car" route="E_S1" depart="189.0" departLane="random" departSpeed="10" />
    <vehicle id="N_S_12" type="standard_car" route="N_S" depart="189.0" departLane="random" departSpeed="10" />
    <vehicle id="W_N_13" type="standard_car" route="W_N" depart="202.0" departLane="random" departSpeed="10" />
    <vehicle id="E_N_14" type="standard_car" route="N_W1" depart="212.0" departLane="random" departSpeed="10" />
    <vehicle id="E_N_15" type="standard_car" route="N_W1" depart="212.0" departLane="random" departSpeed="10" />
    <vehicle id="E_W1_16" type="standard_car" route="E_W1" depart="222.0" departLane="random" departSpeed="10" />
    <vehicle id="E_W1_17" type="standard_car" route="E_W1" depart="243.0" departLane="random" departSpeed="10" />
    <vehicle id="W_E_18" type="standard_car" route="W_E" depart="243.0" departLane="random" departSpeed="10" />
    <vehicle id="N_S1_19" type="standard_car" route="N_S1" depart="247.0" departLane="random" departSpeed="10" />
    <vehicle id="W_N_20" type="standard_car" route="W_N" depart="250.0" departLane="random" departSpeed="10" />
    <vehicle id="W_N_21" type="standard_car" route="W_N" depart="267.0" departLane="random" departSpeed="10" />
    <vehicle id="W_E_22" type="standard_car" route="W_E" depart="273.0" departLane="random" departSpeed="10" />
    <vehicle id="E_W1_23" type="standard_car" route="E_W1" depart="277.0" departLane="random" departSpeed="10" />
    <vehicle id="N_S_24" type="standard_car" route="N_S" depart="289.0" departLane="random" departSpeed="10" />
    <vehicle id="N_E_25" type="standard_car" route="N_E" depart="290.0" departLane="random" departSpeed="10" />
    <vehicle id="N_S1_26" type="standard_car" route="N_S1" depart="292.0" departLane="random" departSpeed="10" />
    <vehicle id="E_N_27" type="standard_car" route="N_W1" depart="294.0" departLane="random" departSpeed="10" />
    <vehicle id="N_S_28" type="standard_car" route="N_S" depart="303.0" departLane="random" departSpeed="10" />
    <vehicle id="W_N_29" type="standard_car" route="W_N" depart="308.0" departLane="random" departSpeed="10" />
    <vehicle id="S_N_30" type="standard_car" route="S_N" depart="313.0" departLane="random" departSpeed="10" />
    <vehicle id="N_S_31" type="standard_car" route="N_S" depart="318.0" departLane="random" departSpeed="10" />
    <vehicle id="E_S1_32" type="standard_car" route="E_S1" depart="322.0" departLane="random" departSpeed="10" />
    <vehicle id="N_S_33" type="standard_car" route="N_S" depart="322.0" departLane="random" departSpeed="10" />
    <vehicle id="W_E_34" type="standard_car" route="W_E" depart="339.0" departLane="random" departSpeed="10" />
    <vehicle id="W_N_35" type="standard_car" route="W_N" depart="342.0" departLane="random" departSpeed="10" />
    <vehicle id="W_E_36" type="standard_car" route="W_E" depart="344.0" departLane="random" departSpeed="10" />
    <vehicle id="E_S1_37" type="standard_car" route="E_S1" depart="344.0" departLane="random" departSpeed="10" />
    <vehicle id="E_W1_38" type="standard_car" route="E_W1" depart="352.0" departLane="random" departSpeed="10" />
    <vehicle id="W_N_39" type="standard_car" route="W_N" depart="353.0" departLane="random" departSpeed="10" />
    <vehicle id="E_S1_40" type="standard_car" route="E_S1" depart="356.0" departLane="random" departSpeed="10" />
    <vehicle id="N_S_41" type="standard_car" route="N_S" depart="364.0" departLane="random" departSpeed="10" />
    <vehicle id="N_S1_42" type="standard_car" route="N_S1" depart="364.0" departLane="random" departSpeed="10" />
    <vehicle id="E_W1_43" type="standard_car" route="E_W1" depart="367.0" departLane="random" departSpeed="10" />
    <vehicle id="E_W1_44" type="standard_car" route="E_W1" depart="370.0" departLane="random" departSpeed="10" />
    <vehicle id="N_S1_45" type="standard_car" route="N_S1" depart="373.0" departLane="random" departSpeed="10" />
    <vehicle id="E_N_46" type="standard_car" route="N_W1" depart="381.0" departLane="random" departSpeed="10" />
    <vehicle id="E_S1_47" type="standard_car" route="E_S1" depart="385.0" departLane="random" departSpeed="10" />
    <vehicle id="E_S1_48" type="standard_car" route="E_S1" depart="387.0" departLane="random" departSpeed="10" />
    <vehicle id="W_E_49" type="standard_car" route="W_E" depart="393.0" departLane="random" departSpeed="10" />
    <vehicle id="N_E_50" type="standard_car" route="N_E" depart="400.0" departLane="random" departSpeed="10" />
    <vehicle id="N_E_51" type="standard_car" route="N_E" depart="402.0" departLane="random" departSpeed="10" />
    <vehicle id="S_N_52" type="standard_car" route="S_N" depart="402.0" departLane="random" departSpeed="10" />
    <vehicle id="N_S_53" type="standard_car" route="N_S" depart="404.0" departLane="random" departSpeed="10" />
    <vehicle id="E_N_54" type="standard_car" route="N_W1" depart="406.0" departLane="random" departSpeed="10" />
    <vehicle id="S_N_55" type="standard_car" route="S_N" depart="411.0" departLane="random" departSpeed="10" />
    <vehicle id="W_E_56" type="standard_car" route="W_E" depart="413.0" departLane="random" departSpeed="10" />
    <vehicle id="E_N_57" type="standard_car" route="N_W1" depart="417.0" departLane="random" departSpeed="10" />
    <vehicle id="N_S_58" type="standard_car" route="N_S" depart="420.0" departLane="random" departSpeed="10" />
    <vehicle id="W_N_59" type="standard_car" route="W_N" depart="420.0" departLane="random" departSpeed="10" />
    <vehicle id="E_N_60" type="standard_car" route="N_W1" depart="420.0" departLane="random" departSpeed="10" />
    <vehicle id="E_S1_61" type="standard_car" route="E_S1" depart="424.0" departLane="random" departSpeed="10" />
    <vehicle id="S_N1_62" type="standard_car" route="S_N1" depart="433.0" departLane="random" departSpeed="10" />
    <vehicle id="N_S1_63" type="standard_car" route="N_S1" depart="433.0" departLane="random" departSpeed="10" />
    <vehicle id="E_W1_64" type="standard_car" route="E_W1" depart="437.0" departLane="random" departSpeed="10" />
    <vehicle id="W_E_65" type="standard_car" route="W_E" depart="444.0" departLane="random" departSpeed="10" />
    <vehicle id="S_N_66" type="standard_car" route="S_N" depart="444.0" departLane="random" departSpeed="10" />
    <vehicle id="S_N1_67" type="standard_car" route="S_N1" depart="446.0" departLane="random" departSpeed="10" />
    <vehicle id="N_S1_68" type="standard_car" route="N_S1" depart="449.0" departLane="random" departSpeed="10" />
    <vehicle id="N_S1_69" type="standard_car" route="N_S1" depart="456.0" departLane="random" departSpeed="10" />
    <vehicle id="S_N_70" type="standard_car" route="S_N" depart="457.0" departLane="random" departSpeed="10" />
    <vehicle id="E_W1_71" type="standard_car" route="E_W1" depart="461.0" departLane="random" departSpeed="10" />
    <vehicle id="E_S1_72" type="standard_car" route="E_S1" depart="461.0" departLane="random" departSpeed="10" />
    <vehicle id="S_N_73" type="standard_car" route="S_N" depart="464.0" departLane="random" departSpeed="10" />
    <vehicle id="E_S1_74" type="standard_car" route="E_S1" depart="471.0" departLane="random" departSpeed="10" />
    <vehicle id="N_E_75" type="standard_car" route="N_E" depart="471.0" departLane="random" departSpeed="10" />
    <vehicle id="S_N_76" type="standard_car" route="S_N" depart="472.0" departLane="random" departSpeed="10" />
    <vehicle id="S_N1_77" type="standard_car" route="S_N1" depart="473.0" departLane="random" departSpeed="10" />
    <vehicle id="N_E_78" type="standard_car" route="N_E" depart="483.0" departLane="random" departSpeed="10" />
    <vehicle id="N_S_79" type="standard_car" route="N_S" depart="485.0" departLane="random" departSpeed="10" />
    <vehicle id="W_N_80" type="standard_car" route="W_N" depart="490.0" departLane="random" departSpeed="10" />
    <vehicle id="N_S_81" type="standard_car" route="N_S" depart="496.0" departLane="random" departSpeed="10" />
    <vehicle id="N_S_82" type="standard_car" route="N_S" depart="499.0" departLane="random" departSpeed="10" />
    <vehicle id="E_S1_83" type="standard_car" route="E_S1" depart="502.0" departLane="random" departSpeed="10" />
    <vehicle id="W_N_84" type="standard_car" route="W_N" depart="504.0" departLane="random" departSpeed="10" />
    <vehicle id="W_N_85" type="standard_car" route="W_N" depart="504.0" departLane="random" departSpeed="10" />
    <vehicle id="E_W1_86" type="standard_car" route="E_W1" depart="505.0" departLane="random" departSpeed="10" />
    <vehicle id="E_W1_87" type="standard_car" route="E_W1" depart="506.0" departLane="random" departSpeed="10" />
    <vehicle id="E_W1_88" type="standard_car" route="E_W1" depart="507.0" departLane="random" departSpeed="10" />
    <vehicle id="N_E_89" type="standard_car" route="N_E" depart="508.0" departLane="random" departSpeed="10" />
    <vehicle id="E_N_90" type="standard_car" route="N_W1" depart="509.0" departLane="random" departSpeed="10" />
    <vehicle id="S_N1_91" type="standard_car" route="S_N1" depart="515.0" departLane="random" departSpeed="10" />
    <vehicle id="S_N_92" type="standard_car" route="S_N" depart="521.0" departLane="random" departSpeed="10" />
    <vehicle id="N_S_93" type="standard_car" route="N_S" depart="523.0" departLane="random" departSpeed="10" />
    <vehicle id="N_S1_94" type="standard_car" route="N_S1" depart="523.0" departLane="random" departSpeed="10" />
    <vehicle id="N_E_95" type="standard_car" route="N_E" depart="523.0" departLane="random" departSpeed="10" />
    <vehicle id="W_E_96" type="standard_car" route="W_E" depart="527.0" departLane="random" departSpeed="10" />
    <vehicle id="N_S1_97" type="standard_car" route="N_S1" depart="527.0" departLane="random" departSpeed="10" />
    <vehicle id="E_W1_98" type="standard_car" route="E_W1" depart="532.0" departLane="random" departSpeed="10" />
    <vehicle id="E_S1_99" type="standard_car" route="E_S1" depart="536.0" departLane="random" departSpeed="10" />
    <vehicle id="E_S1_100" type="standard_car" route="E_S1" depart="540.0" departLane="random" departSpeed="10" />
    <vehicle id="E_W1_101" type="standard_car" route="E_W1" depart="541.0" departLane="random" departSpeed="10" />
    <vehicle id="N_S1_102" type="standard_car" route="N_S1" depart="544.0" departLane="random" departSpeed="10" />
    <vehicle id="E_W1_103" type="standard_car" route="E_W1" depart="548.0" departLane="random" departSpeed="10" />
    <vehicle id="N_S_104" type="standard_car" route="N_S" depart="551.0" departLane="random" departSpeed="10" />
    <vehicle id="N_S1_105" type="standard_car" route="N_S1" depart="559.0" departLane="random" departSpeed="10" />
    <vehicle id="E_N_106" type="standard_car" route="N_W1" depart="561.0" departLane="random" departSpeed="10" />
    <vehicle id="N_S1_107" type="standard_car" route="N_S1" depart="561.0" departLane="random" departSpeed="10" />
    <vehicle id="N_S_108" type="standard_car" route="N_S" depart="562.0" departLane="random" departSpeed="10" />
    <vehicle id="W_E_109" type="standard_car" route="W_E" depart="562.0" departLane="random" departSpeed="10" />
    <vehicle id="E_W1_110" type="standard_car" route="E_W1" depart="565.0" departLane="random" departSpeed="10" />
    <vehicle id="N_S_111" type="standard_car" route="N_S" depart="567.0" departLane="random" departSpeed="10" />
    <vehicle id="S_N1_112" type="standard_car" route="S_N1" depart="568.0" departLane="random" departSpeed="10" />
    <vehicle id="W_E_113" type="standard_car" route="W_E" depart="570.0" departLane="random" departSpeed="10" />
    <vehicle id="E_S1_114" type="standard_car" route="E_S1" depart="571.0" departLane="random" departSpeed="10" />
    <vehicle id="N_E_115" type="standard_car" route="N_E" depart="577.0" departLane="random" departSpeed="10" />
    <vehicle id="W_E_116" type="standard_car" route="W_E" depart="584.0" departLane="random" departSpeed="10" />
    <vehicle id="E_N_117" type="standard_car" route="N_W1" depart="584.0" departLane="random" departSpeed="10" />
    <vehicle id="N_S_118" type="standard_car" route="N_S" depart="590.0" departLane="random" departSpeed="10" />
    <vehicle id="S_N_119" type="standard_car" route="S_N" depart="592.0" departLane="random" departSpeed="10" />
    <vehicle id="S_N1_120" type="standard_car" route="S_N1" depart="593.0" departLane="random" departSpeed="10" />
    <vehicle id="E_S1_121" type="standard_car" route="E_S1" depart="593.0" departLane="random" departSpeed="10" />
    <vehicle id="N_S1_122" type="standard_car" route="N_S1" depart="594.0" departLane="random" departSpeed="10" />
    <vehicle id="S_N1_123" type="standard_car" route="S_N1" depart="594.0" departLane="random" departSpeed="10" />
    <vehicle id="N_S_124" type="standard_car" route="N_S" depart="596.0" departLane="random" departSpeed="10" />
    <vehicle id="E_S1_125" type="standard_car" route="E_S1" depart="596.0" departLane="random" departSpeed="10" />
    <vehicle id="E_W1_126" type="standard_car" route="E_W1" depart="599.0" departLane="random" departSpeed="10" />
    <vehicle id="N_S_127" type="standard_car" route="N_S" depart="599.0" departLane="random" departSpeed="10" />
    <vehicle id="S_N1_128" type="standard_car" route="S_N1" depart="606.0" departLane="random" departSpeed="10" />
    <vehicle id="E_S1_129" type="standard_car" route="E_S1" depart="608.0" departLane="random" departSpeed="10" />
    <vehicle id="S_N_130" type="standard_car" route="S_N" depart="609.0" departLane="random" departSpeed="10" />
    <vehicle id="E_N_131" type="standard_car" route="N_W1" depart="612.0" departLane="random" departSpeed="10" />
    <vehicle id="E_N_132" type="standard_car" route="N_W1" depart="614.0" departLane="random" departSpeed="10" />
    <vehicle id="N_S_133" type="standard_car" route="N_S" depart="614.0" departLane="random" departSpeed="10" />
    <vehicle id="S_N_134" type="standard_car" route="S_N" depart="618.0" departLane="random" departSpeed="10" />
    <vehicle id="S_N_135" type="standard_car" route="S_N" depart="623.0" departLane="random" departSpeed="10" />
    <vehicle id="N_E_136" type="standard_car" route="N_E" depart="625.0" departLane="random" departSpeed="10" />
    <vehicle id="N_S1_137" type="standard_car" route="N_S1" depart="630.0" departLane="random" departSpeed="10" />
    <vehicle id="N_S1_138" type="standard_car" route="N_S1" depart="632.0" departLane="random" departSpeed="10" />
    <vehicle id="E_N_139" type="standard_car" route="N_W1" depart="634.0" departLane="random" departSpeed="10" />
    <vehicle id="E_W1_140" type="standard_car" route="E_W1" depart="635.0" departLane="random" departSpeed="10" />
    <vehicle id="E_W1_141" type="standard_car" route="E_W1" depart="636.0" departLane="random" departSpeed="10" />
    <vehicle id="E_N_142" type="standard_car" route="N_W1" depart="640.0" departLane="random" departSpeed="10" />
    <vehicle id="E_S1_143" type="standard_car" route="E_S1" depart="643.0" departLane="random" departSpeed="10" />
    <vehicle id="E_N_144" type="standard_car" route="N_W1" depart="645.0" departLane="random" departSpeed="10" />
    <vehicle id="E_S1_145" type="standard_car" route="E_S1" depart="645.0" departLane="random" departSpeed="10" />
    <vehicle id="S_N_146" type="standard_car" route="S_N" depart="646.0" departLane="random" departSpeed="10" />
    <vehicle id="N_S_147" type="standard_car" route="N_S" depart="653.0" departLane="random" departSpeed="10" />
    <vehicle id="E_W1_148" type="standard_car" route="E_W1" depart="654.0" departLane="random" departSpeed="10" />
    <vehicle id="E_N_149" type="standard_car" route="N_W1" depart="654.0" departLane="random" departSpeed="10" />
    <vehicle id="W_E_150" type="standard_car" route="W_E" depart="663.0" departLane="random" departSpeed="10" />
    <vehicle id="W_N_151" type="standard_car" route="W_N" depart="663.0" departLane="random" departSpeed="10" />
    <vehicle id="N_S1_152" type="standard_car" route="N_S1" depart="664.0" departLane="random" departSpeed="10" />
    <vehicle id="W_E_153" type="standard_car" route="W_E" depart="664.0" departLane="random" departSpeed="10" />
    <vehicle id="E_S1_154" type="standard_car" route="E_S1" depart="669.0" departLane="random" departSpeed="10" />
    <vehicle id="W_N_155" type="standard_car" route="W_N" depart="670.0" departLane="random" departSpeed="10" />
    <vehicle id="N_S_156" type="standard_car" route="N_S" depart="673.0" departLane="random" departSpeed="10" />
    <vehicle id="S_N_157" type="standard_car" route="S_N" depart="683.0" departLane="random" departSpeed="10" />
    <vehicle id="S_N1_158" type="standard_car" route="S_N1" depart="685.0" departLane="random" departSpeed="10" />
    <vehicle id="W_N_159" type="standard_car" route="W_N" depart="685.0" departLane="random" departSpeed="10" />
    <vehicle id="E_N_160" type="standard_car" route="N_W1" depart="686.0" departLane="random" departSpeed="10" />
    <vehicle id="N_S_161" type="standard_car" route="N_S" depart="686.0" departLane="random" departSpeed="10" />
    <vehicle id="S_N_162" type="standard_car" route="S_N" depart="690.0" departLane="random" departSpeed="10" />
    <vehicle id="S_N1_163" type="standard_car" route="S_N1" depart="693.0" departLane="random" departSpeed="10" />
    <vehicle id="W_E_164" type="standard_car" route="W_E" depart="694.0" departLane="random" departSpeed="10" />
    <vehicle id="N_E_165" type="standard_car" route="N_E" depart="697.0" departLane="random" departSpeed="10" />
    <vehicle id="E_N_166" type="standard_car" route="N_W1" depart="698.0" departLane="random" departSpeed="10" />
    <vehicle id="N_S_167" type="standard_car" route="N_S" depart="699.0" departLane="random" departSpeed="10" />
    <vehicle id="N_S_168" type="standard_car" route="N_S" depart="700.0" departLane="random" departSpeed="10" />
    <vehicle id="N_E_169" type="standard_car" route="N_E" depart="703.0" departLane="random" departSpeed="10" />
    <vehicle id="N_S1_170" type="standard_car" route="N_S1" depart="704.0" departLane="random" departSpeed="10" />
    <vehicle id="E_N_171" type="standard_car" route="N_W1" depart="715.0" departLane="random" departSpeed="10" />
    <vehicle id="S_N_172" type="standard_car" route="S_N" depart="718.0" departLane="random" departSpeed="10" />
    <vehicle id="E_W1_173" type="standard_car" route="E_W1" depart="722.0" departLane="random" departSpeed="10" />
    <vehicle id="W_E_174" type="standard_car" route="W_E" depart="723.0" departLane="random" departSpeed="10" />
    <vehicle id="E_W1_175" type="standard_car" route="E_W1" depart="723.0" departLane="random" departSpeed="10" />
    <vehicle id="W_E_176" type="standard_car" route="W_E" depart="723.0" departLane="random" departSpeed="10" />
    <vehicle id="E_S1_177" type="standard_car" route="E_S1" depart="726.0" departLane="random" departSpeed="10" />
    <vehicle id="E_S1_178" type="standard_car" route="E_S1" depart="728.0" departLane="random" departSpeed="10" />
    <vehicle id="S_N_179" type="standard_car" route="S_N" depart="731.0" departLane="random" departSpeed="10" />
    <vehicle id="E_N_180" type="standard_car" route="N_W1" depart="733.0" departLane="random" departSpeed="10" />
    <vehicle id="E_W1_181" type="standard_car" route="E_W1" depart="734.0" departLane="random" departSpeed="10" />
    <vehicle id="W_N_182" type="standard_car" route="W_N" depart="735.0" departLane="random" departSpeed="10" />
    <vehicle id="E_W1_183" type="standard_car" route="E_W1" depart="741.0" departLane="random" departSpeed="10" />
    <vehicle id="W_N_184" type="standard_car" route="W_N" depart="744.0" departLane="random" departSpeed="10" />
    <vehicle id="E_S1_185" type="standard_car" route="E_S1" depart="747.0" departLane="random" departSpeed="10" />
    <vehicle id="E_N_186" type="standard_car" route="N_W1" depart="751.0" departLane="random" departSpeed="10" />
    <vehicle id="W_N_187" type="standard_car" route="W_N" depart="751.0" departLane="random" departSpeed="10" />
    <vehicle id="W_E_188" type="standard_car" route="W_E" depart="754.0" departLane="random" departSpeed="10" />
    <vehicle id="E_S1_189" type="standard_car" route="E_S1" depart="755.0" departLane="random" departSpeed="10" />
    <vehicle id="E_S1_190" type="standard_car" route="E_S1" depart="755.0" departLane="random" departSpeed="10" />
    <vehicle id="S_N1_191" type="standard_car" route="S_N1" depart="761.0" departLane="random" departSpeed="10" />
    <vehicle id="W_N_192" type="standard_car" route="W_N" depart="761.0" departLane="random" departSpeed="10" />
    <vehicle id="E_S1_193" type="standard_car" route="E_S1" depart="762.0" departLane="random" departSpeed="10" />
    <vehicle id="S_N_194" type="standard_car" route="S_N" depart="763.0" departLane="random" departSpeed="10" />
    <vehicle id="N_E_195" type="standard_car" route="N_E" depart="767.0" departLane="random" departSpeed="10" />
    <vehicle id="E_N_196" type="standard_car" route="N_W1" depart="772.0" departLane="random" departSpeed="10" />
    <vehicle id="N_S_197" type="standard_car" route="N_S" depart="782.0" departLane="random" departSpeed="10" />
    <vehicle id="W_N_198" type="standard_car" route="W_N" depart="782.0" departLane="random" departSpeed="10" />
    <vehicle id="E_W1_199" type="standard_car" route="E_W1" depart="787.0" departLane="random" departSpeed="10" />
    <vehicle id="E_W1_200" type="standard_car" route="E_W1" depart="788.0" departLane="random" departSpeed="10" />
    <vehicle id="N_E_201" type="standard_car" route="N_E" depart="789.0" departLane="random" departSpeed="10" />
    <vehicle id="N_S1_202" type="standard_car" route="N_S1" depart="789.0" departLane="random" departSpeed="10" />
    <vehicle id="S_N_203" type="standard_car" route="S_N" depart="798.0" departLane="random" departSpeed="10" />
    <vehicle id="S_N1_204" type="standard_car" route="S_N1" depart="800.0" departLane="random" departSpeed="10" />
    <vehicle id="E_S1_205" type="standard_car" route="E_S1" depart="802.0" departLane="random" departSpeed="10" />
    <vehicle id="E_S1_206" type="standard_car" route="E_S1" depart="803.0" departLane="random" departSpeed="10" />
    <vehicle id="W_E_207" type="standard_car" route="W_E" depart="803.0" departLane="random" departSpeed="10" />
    <vehicle id="E_S1_208" type="standard_car" route="E_S1" depart="810.0" departLane="random" departSpeed="10" />
    <vehicle id="S_N_209" type="standard_car" route="S_N" depart="814.0" departLane="random" departSpeed="10" />
    <vehicle id="W_N_210" type="standard_car" route="W_N" depart="815.0" departLane="random" departSpeed="10" />
    <vehicle id="S_N1_211" type="standard_car" route="S_N1" depart="815.0" departLane="random" departSpeed="10" />
    <vehicle id="N_S1_212" type="standard_car" route="N_S1" depart="818.0" departLane="random" departSpeed="10" />
    <vehicle id="N_E_213" type="standard_car" route="N_E" depart="821.0" departLane="random" departSpeed="10" />
    <vehicle id="W_N_214" type="standard_car" route="W_N" depart="822.0" departLane="random" departSpeed="10" />
    <vehicle id="S_N_215" type="standard_car" route="S_N" depart="827.0" departLane="random" departSpeed="10" />
    <vehicle id="S_N_216" type="standard_car" route="S_N" depart="830.0" departLane="random" departSpeed="10" />
    <vehicle id="N_E_217" type="standard_car" route="N_E" depart="830.0" departLane="random" departSpeed="10" />
    <vehicle id="N_S1_218" type="standard_car" route="N_S1" depart="833.0" departLane="random" departSpeed="10" />
    <vehicle id="N_E_219" type="standard_car" route="N_E" depart="833.0" departLane="random" departSpeed="10" />
    <vehicle id="S_N1_220" type="standard_car" route="S_N1" depart="836.0" departLane="random" departSpeed="10" />
    <vehicle id="N_E_221" type="standard_car" route="N_E" depart="836.0" departLane="random" departSpeed="10" />
    <vehicle id="W_E_222" type="standard_car" route="W_E" depart="836.0" departLane="random" departSpeed="10" />
    <vehicle id="W_N_223" type="standard_car" route="W_N" depart="838.0" departLane="random" departSpeed="10" />
    <vehicle id="E_S1_224" type="standard_car" route="E_S1" depart="840.0" departLane="random" departSpeed="10" />
    <vehicle id="E_W1_225" type="standard_car" route="E_W1" depart="843.0" departLane="random" departSpeed="10" />
    <vehicle id="N_S1_226" type="standard_car" route="N_S1" depart="844.0" departLane="random" departSpeed="10" />
    <vehicle id="E_W1_227" type="standard_car" route="E_W1" depart="845.0" departLane="random" departSpeed="10" />
    <vehicle id="S_N1_228" type="standard_car" route="S_N1" depart="846.0" departLane="random" departSpeed="10" />
    <vehicle id="S_N1_229" type="standard_car" route="S_N1" depart="846.0" departLane="random" departSpeed="10" />
    <vehicle id="W_E_230" type="standard_car" route="W_E" depart="857.0" departLane="random" departSpeed="10" />
    <vehicle id="N_E_231" type="standard_car" route="N_E" depart="858.0" departLane="random" departSpeed="10" />
    <vehicle id="W_E_232" type="standard_car" route="W_E" depart="865.0" departLane="random" departSpeed="10" />
    <vehicle id="W_E_233" type="standard_car" route="W_E" depart="867.0" departLane="random" departSpeed="10" />
    <vehicle id="N_S1_234" type="standard_car" route="N_S1" depart="868.0" departLane="random" departSpeed="10" />
    <vehicle id="W_E_235" type="standard_car" route="W_E" depart="871.0" departLane="random" departSpeed="10" />
    <vehicle id="W_E_236" type="standard_car" route="W_E" depart="875.0" departLane="random" departSpeed="10" />
    <vehicle id="S_N_237" type="standard_car" route="S_N" depart="878.0" departLane="random" departSpeed="10" />
    <vehicle id="N_E_238" type="standard_car" route="N_E" depart="879.0" departLane="random" departSpeed="10" />
    <vehicle id="W_N_239" type="standard_car" route="W_N" depart="881.0" departLane="random" departSpeed="10" />
    <vehicle id="N_S1_240" type="standard_car" route="N_S1" depart="885.0" departLane="random" departSpeed="10" />
    <vehicle id="E_W1_241" type="standard_car" route="E_W1" depart="887.0" departLane="random" departSpeed="10" />
    <vehicle id="N_E_242" type="standard_car" route="N_E" depart="890.0" departLane="random" departSpeed="10" />
    <vehicle id="N_E_243" type="standard_car" route="N_E" depart="890.0" departLane="random" departSpeed="10" />
    <vehicle id="E_W1_244" type="standard_car" route="E_W1" depart="894.0" departLane="random" departSpeed="10" />
    <vehicle id="S_N1_245" type="standard_car" route="S_N1" depart="897.0" departLane="random" departSpeed="10" />
    <vehicle id="E_W1_246" type="standard_car" route="E_W1" depart="898.0" departLane="random" departSpeed="10" />
    <vehicle id="N_S_247" type="standard_car" route="N_S" depart="902.0" departLane="random" departSpeed="10" />
    <vehicle id="N_S1_248" type="standard_car" route="N_S1" depart="905.0" departLane="random" departSpeed="10" />
    <vehicle id="S_N_249" type="standard_car" route="S_N" depart="906.0" departLane="random" departSpeed="10" />
    <vehicle id="W_N_250" type="standard_car" route="W_N" depart="907.0" departLane="random" departSpeed="10" />
    <vehicle id="N_E_251" type="standard_car" route="N_E" depart="911.0" departLane="random" departSpeed="10" />